17
-0.01343795342836529
C        0.110803       1.125835       0.297878
C        1.202901       0.668497      -0.652960
C        1.203014      -0.662616      -0.651892
C        0.111094      -1.118728       0.299941
H        0.178820       2.150380       0.649004
H        1.784262       1.323583      -1.285149
H        1.784948      -1.318648      -1.282519
H        0.179972      -2.142664       0.652757
C        0.177084       0.004510       1.351446
H        1.110035       0.005034       1.908303
H       -0.672788       0.005128       2.035435
C       -1.237693       0.778114      -0.392852
C       -1.237194      -0.772669      -0.391692
H       -2.068578       1.172265       0.188632
H       -1.292123       1.198148      -1.393443
H       -1.291145      -1.194374      -1.391638
H       -2.068524      -1.166706       0.189285
17
-0.009252552932593971
C        0.112072       1.125961       0.297650
C        1.201107       0.668623      -0.656174
C        1.201333      -0.662770      -0.654899
C        0.112476      -1.118915       0.299756
H        0.182470       2.150300       0.648596
H        1.783013       1.323555      -1.287852
H        1.784299      -1.318717      -1.284494
H        0.183785      -2.142568       0.652875
C        0.181714       0.004547       1.351194
H        1.116958       0.005205       1.904414
H       -0.665897       0.005059       2.037908
C       -1.241589       0.777942      -0.391028
C       -1.241188      -0.772325      -0.390108
H       -2.071871       1.171446       0.191839
H       -1.297073       1.199046      -1.391250
H       -1.296118      -1.194393      -1.389966
H       -2.071704      -1.165935       0.192458
17
-0.014586361357942224
C        0.110493       1.125838       0.297153
C        1.202459       0.668490      -0.654040
C        1.202662      -0.662585      -0.652931
C        0.110859      -1.118667       0.299223
H        0.178945       2.150486       0.647938
H        1.786267       1.323575      -1.283835
H        1.786589      -1.318555      -1.281556
H        0.179983      -2.142647       0.651867
C        0.177293       0.004497       1.350796
H        1.110509       0.005105       1.907130
H       -0.672635       0.004995       2.034933
C       -1.238445       0.778047      -0.392320
C       -1.237992      -0.772665      -0.391134
H       -2.068638       1.172454       0.190063
H       -1.293241       1.198516      -1.392724
H       -1.291923      -1.194740      -1.390977
H       -2.068580      -1.166797       0.191049
17
-0.011455901694716886
C        0.111878       1.125969       0.297362
C        1.201051       0.668545      -0.656384
C        1.201307      -0.662709      -0.655125
C        0.112319      -1.118866       0.299431
H        0.181814       2.150573       0.647890
H        1.784388       1.323508      -1.286715
H        1.785425      -1.318702      -1.283724
H        0.183055      -2.142782       0.652075
C        0.181304       0.004616       1.350888
H        1.116681       0.005289       1.904305
H       -0.666299       0.005119       2.037487
C       -1.241465       0.777903      -0.390876
C       -1.241049      -0.772381      -0.389963
H       -2.071467       1.171591       0.192352
H       -1.297584       1.198728      -1.391219
H       -1.296556      -1.194174      -1.389871
H       -2.071148      -1.166049       0.193057
