16
-539.3913943198669
C       -1.633162      -0.229976       0.511548
C       -1.639052      -0.163968      -0.482134
C       -2.195180       0.455206       0.053338
C       -1.204257       0.551649       0.059488
H       -1.721566       0.098348      -1.435156
H       -0.772853       0.140532       0.855296
H       -0.923542      -0.845799       0.843822
H       -0.213870       0.445492       0.083381
H       -0.789277      -0.358216      -0.013769
H       -3.184854       0.391220      -0.036615
C        3.316264       0.326173       0.233458
C        2.332833       0.158203       0.189501
H        2.892627      -0.340492       0.846053
H        2.980534      -0.543186      -0.125506
H        2.127913      -0.389111      -0.617451
H        2.854449       0.296756      -0.650828
