17
-11.770368233759655
C        0.101313       1.061996       0.311177
C        1.217254       0.568169      -0.542952
C        1.189530      -0.765711      -0.526630
C        0.055323      -1.192883       0.343517
H       -0.008518       2.105849       0.581925
H        1.835143       1.182062      -1.187747
H        1.785540      -1.418196      -1.149687
H       -0.088492      -2.225518       0.636107
C       -0.125043      -0.048595       1.332572
H        0.639830      -0.049642       2.115319
H       -1.106637      -0.025819       1.798525
C       -1.227732       0.701998      -0.619130
C       -1.250914      -0.805686      -0.596913
H       -2.005458       1.200893      -0.054339
H       -0.970410       1.163253      -1.563079
H       -1.013004      -1.286604      -1.539046
H       -2.055137      -1.268730      -0.036495
17
-12.941020637546899
C        0.116013       1.067214       0.335363
C        1.239699       0.590538      -0.530340
C        1.222703      -0.741626      -0.523794
C        0.091912      -1.181446       0.349889
H        0.008450       2.109015       0.615730
H        1.838074       1.215430      -1.180758
H        1.813810      -1.385568      -1.158459
H       -0.036809      -2.221125       0.631602
C       -0.084663      -0.049308       1.354134
H        0.680275      -0.045196       2.132459
H       -1.064618      -0.041710       1.828824
C       -1.200927       0.709364      -0.571896
C       -1.213223      -0.800479      -0.562920
H       -1.978767       1.195387       0.011213
H       -0.955347       1.185035      -1.512377
H       -0.997513      -1.276794      -1.512700
H       -2.009684      -1.266513       0.007867
17
-14.175357106083538
C        0.144899       1.081141       0.353015
C        1.267273       0.625970      -0.520936
C        1.267361      -0.709989      -0.521569
C        0.147373      -1.166188       0.355302
H        0.042984       2.119812       0.649838
H        1.838348       1.261530      -1.185970
H        1.856318      -1.343703      -1.166258
H        0.035404      -2.204081       0.635281
C       -0.017774      -0.042615       1.370836
H        0.753613      -0.035428       2.134259
H       -0.997624      -0.046942       1.858500
C       -1.186825       0.710223      -0.547441
C       -1.178694      -0.796569      -0.536826
H       -1.974070       1.178330       0.042647
H       -0.968009       1.191736      -1.489321
H       -0.981436      -1.265846      -1.490766
H       -1.967556      -1.265441       0.047662
17
-15.592794195224997
C        0.180455       1.126080       0.361479
C        1.298824       0.693654      -0.538967
C        1.316362      -0.639190      -0.552655
C        0.209580      -1.116230       0.333839
H        0.087929       2.157157       0.687679
H        1.840933       1.341637      -1.212210
H        1.900313      -1.259357      -1.215705
H        0.118293      -2.162886       0.601327
C        0.052687      -0.010668       1.370890
H        0.832603      -0.000540       2.126135
H       -0.924385      -0.035558       1.862621
C       -1.144187       0.759296      -0.509124
C       -1.126621      -0.752659      -0.519601
H       -1.935269       1.209193       0.094669
H       -0.961421       1.246892      -1.457522
H       -0.946670      -1.211526      -1.481706
H       -1.899976      -1.230381       0.077602
